Version 4
SHEET 1 880 680
WIRE 304 -16 176 -16
WIRE 544 -16 304 -16
WIRE 176 16 176 -16
WIRE 304 16 304 -16
WIRE 544 16 544 -16
WIRE 304 112 304 96
WIRE 384 112 304 112
WIRE 544 128 544 96
WIRE 64 160 16 160
WIRE 176 160 176 96
WIRE 176 160 128 160
WIRE 240 160 176 160
WIRE 16 208 16 160
WIRE 176 224 176 160
WIRE 304 224 304 208
WIRE 416 224 304 224
WIRE 416 240 416 224
WIRE 16 336 16 288
WIRE 176 336 176 304
WIRE 304 336 304 304
WIRE 416 336 416 304
FLAG 176 336 0
FLAG 304 336 0
FLAG 416 336 0
FLAG 16 336 0
FLAG 544 128 0
FLAG 448 112 Vout
SYMBOL res 160 0 R0
SYMATTR InstName R1
SYMATTR Value 8k
SYMBOL res 160 208 R0
SYMATTR InstName R2
SYMATTR Value 2k
SYMBOL cap 64 144 M90
WINDOW 0 0 32 VBottom 2
WINDOW 3 32 32 VTop 2
SYMATTR InstName Cblock
SYMATTR Value 100µ
SYMBOL npn 240 112 R0
SYMATTR InstName Q1
SYMATTR Value 2N3904
SYMBOL res 288 208 R0
SYMATTR InstName R3
SYMATTR Value 200
SYMBOL res 288 0 R0
SYMATTR InstName R4
SYMATTR Value 2.1k
SYMBOL cap 400 240 R0
SYMATTR InstName Cbypass
SYMATTR Value 100µ
SYMBOL voltage 16 192 M0
WINDOW 123 24 124 Left 2
WINDOW 39 0 0 Left 2
SYMATTR InstName Vin
SYMATTR Value SINE(0 8m 1k 0 0 0 100)
SYMATTR Value2 AC 1
SYMBOL voltage 544 0 R0
SYMATTR InstName Vcc
SYMATTR Value 5
SYMBOL cap 384 96 M90
WINDOW 0 0 32 VBottom 2
WINDOW 3 32 32 VTop 2
SYMATTR InstName Cout
SYMATTR Value 10p
TEXT -324 360 Left 2 !.tran 0 .001 0
