Version 4
SHEET 1 880 680
WIRE 304 -16 176 -16
WIRE 544 -16 304 -16
WIRE 176 16 176 -16
WIRE 304 16 304 -16
WIRE 544 16 544 -16
WIRE 304 112 304 96
WIRE 384 112 304 112
WIRE 544 128 544 96
WIRE 64 160 16 160
WIRE 176 160 176 96
WIRE 176 160 128 160
WIRE 240 160 176 160
WIRE 16 208 16 160
WIRE 176 224 176 160
WIRE 304 240 304 208
WIRE 432 320 304 320
WIRE 16 336 16 288
WIRE 176 336 176 304
WIRE 304 336 304 320
WIRE 432 352 432 320
WIRE 304 432 304 416
WIRE 432 432 432 416
FLAG 176 336 0
FLAG 16 336 0
FLAG 544 128 0
FLAG 448 112 Vout
FLAG 304 432 0
FLAG 432 432 0
SYMBOL res 160 0 R0
SYMATTR InstName Rb1
SYMATTR Value 10k
SYMBOL res 160 208 R0
SYMATTR InstName Rb2
SYMATTR Value 2.2k
SYMBOL cap 64 144 M90
WINDOW 0 0 32 VBottom 2
WINDOW 3 32 32 VTop 2
SYMATTR InstName Cblock
SYMATTR Value 10µ
SYMBOL npn 240 112 R0
SYMATTR InstName Q1
SYMATTR Value 2N3904
SYMBOL res 288 0 R0
SYMATTR InstName Rc
SYMATTR Value 5k
SYMBOL voltage 16 192 M0
WINDOW 123 24 124 Left 2
WINDOW 39 0 0 Left 2
SYMATTR Value2 AC 1
SYMATTR InstName Vin
SYMATTR Value SINE(0 10m 1k 0 0 0 100)
SYMBOL voltage 544 0 R0
SYMATTR InstName Vcc
SYMATTR Value 5
SYMBOL cap 384 96 M90
WINDOW 0 0 32 VBottom 2
WINDOW 3 32 32 VTop 2
SYMATTR InstName Cout
SYMATTR Value 10n
SYMBOL res 288 224 R0
SYMATTR InstName Re1
SYMATTR Value 51
SYMBOL res 288 320 R0
SYMATTR InstName Re2
SYMATTR Value 350
SYMBOL cap 416 352 R0
SYMATTR InstName C1
SYMATTR Value 330µ
TEXT 512 392 Left 2 ;.tran 0 .001 0
TEXT 512 352 Left 2 !.ac oct 10 10 10g
